Version 4
SHEET 1 880 680
WIRE 96 -160 -304 -160
WIRE 144 -96 -16 -96
WIRE -304 -64 -304 -160
WIRE -304 -64 -576 -64
WIRE -240 -64 -304 -64
WIRE 144 -64 16 -64
WIRE -576 -32 -576 -64
WIRE -240 0 -240 -64
WIRE -208 0 -208 -16
WIRE -208 0 -240 0
WIRE -16 0 -16 -96
WIRE -16 0 -96 0
WIRE -208 16 -208 0
WIRE -576 48 -656 48
WIRE 96 48 96 -160
WIRE 144 48 96 48
WIRE 144 80 96 80
WIRE -304 112 -576 112
WIRE -240 112 -304 112
WIRE -240 144 -240 112
WIRE -208 144 -208 128
WIRE -208 144 -240 144
WIRE 16 144 16 -64
WIRE 16 144 -96 144
WIRE -208 160 -208 144
WIRE -16 192 -16 0
WIRE 144 192 -16 192
WIRE 96 224 96 80
WIRE 144 224 96 224
WIRE -304 256 -304 112
WIRE 96 256 96 224
WIRE 96 256 -304 256
WIRE -768 288 -768 112
WIRE -656 288 -656 48
WIRE -656 288 -768 288
WIRE -576 288 -576 192
WIRE -576 288 -656 288
WIRE -656 304 -656 288
FLAG -656 304 0
SYMBOL ZZZ\\LOGIC\\74HC\\74hc00 192 -144 R0
SYMATTR InstName U1
SYMBOL ZZZ\\LOGIC\\74HC\\74hc00 192 0 R0
SYMATTR InstName U2
SYMBOL ZZZ\\LOGIC\\74HC\\74hc00 192 144 R0
SYMATTR InstName U3
SYMBOL ZZZ\\LOGIC\\74HC\\74hc00 -160 -64 R0
SYMATTR InstName U4
SYMBOL ZZZ\\LOGIC\\74HC\\74hc00 -160 80 R0
SYMATTR InstName U5
SYMBOL voltage -576 -48 R0
WINDOW 123 0 0 Left 0
WINDOW 39 0 0 Left 0
SYMATTR InstName V1
SYMATTR Value 5
SYMBOL voltage -576 96 R0
WINDOW 123 0 0 Left 0
WINDOW 39 0 0 Left 0
SYMATTR InstName V2
SYMATTR Value 0
SYMBOL voltage -768 16 R0
WINDOW 123 0 0 Left 0
WINDOW 39 0 0 Left 0
SYMATTR InstName V3
SYMATTR Value 5
TEXT -520 8 Left 2 ;D+
TEXT -520 152 Left 2 ;D-
TEXT -128 -24 Left 2 ;!d+
TEXT -128 120 Left 2 ;!D-
TEXT 240 -112 Left 2 ;!ON1
TEXT 240 40 Left 2 ;!ON2
TEXT 240 184 Left 2 ;!ON3
